Version 4
SHEET 1 880 680
WIRE 304 32 192 32
WIRE 192 208 192 192
WIRE 304 208 304 192
FLAG 80 208 0
FLAG 192 208 0
FLAG 304 208 0
SYMBOL res 176 96 R0
SYMATTR InstName R1
SYMBOL res 176 16 R0
SYMATTR InstName R2
SYMBOL res 288 16 R0
SYMATTR InstName R3
SYMBOL res 288 96 R0
SYMATTR InstName R4
SYMBOL res 240 80 R0
SYMATTR InstName R5
